tests/data/state_estimation/meshed-network-observability/05-observable-with-branch-measurement-disconnected/input.json
{
  "version": "1.0",
  "type": "input",
  "is_batch": false,
  "attributes": {},
  "data": {
    "source": [
      {
        "id": 0,
        "node": 1,
        "status": 1,
        "u_ref": 1.0
      }
    ],
    "node": [
      {
        "id": 1,
        "u_rated": 10000
      },
      {
        "id": 2,
        "u_rated": 10000
      },
      {
        "id": 3,
        "u_rated": 10000
      },
      {
        "id": 4,
        "u_rated": 10000
      },
      {
        "id": 5,
        "u_rated": 10000
      },
      {
        "id": 6,
        "u_rated": 10000
      },
      {
        "id": 22,
        "u_rated": 10000
      },
      {
        "id": 23,
        "u_rated": 10000
      }
    ],
    "line": [
      {
        "id": 7,
        "from_node": 1,
        "to_node": 2,
        "from_status": 1,
        "to_status": 1,
        "r1": 0.1,
        "x1": 0.0,
        "c1": 0.0,
        "tan1": 0.0,
        "i_n": 500
      },
      {
        "id": 8,
        "from_node": 2,
        "to_node": 3,
        "from_status": 1,
        "to_status": 1,
        "r1": 0.1,
        "x1": 0.0,
        "c1": 0.0,
        "tan1": 0.0,
        "i_n": 500
      },
      {
        "id": 9,
        "from_node": 2,
        "to_node": 4,
        "from_status": 1,
        "to_status": 1,
        "r1": 0.1,
        "x1": 0.0,
        "c1": 0.0,
        "tan1": 0.0,
        "i_n": 500
      },
      {
        "id": 10,
        "from_node": 2,
        "to_node": 5,
        "from_status": 1,
        "to_status": 1,
        "r1": 0.1,
        "x1": 0.0,
        "c1": 0.0,
        "tan1": 0.0,
        "i_n": 500
      },
      {
        "id": 11,
        "from_node": 3,
        "to_node": 4,
        "from_status": 1,
        "to_status": 1,
        "r1": 0.1,
        "x1": 0.0,
        "c1": 0.0,
        "tan1": 0.0,
        "i_n": 500
      },
      {
        "id": 12,
        "from_node": 5,
        "to_node": 6,
        "from_status": 1,
        "to_status": 1,
        "r1": 0.1,
        "x1": 0.0,
        "c1": 0.0,
        "tan1": 0.0,
        "i_n": 500
      },
      {
        "id": 24,
        "from_node": 22,
        "to_node": 23,
        "from_status": 1,
        "to_status": 1,
        "r1": 0.1,
        "x1": 0.0,
        "c1": 0.0,
        "tan1": 0.0,
        "i_n": 500
      }
    ],
    "sym_power_sensor": [
      {
        "id": 13,
        "measured_object": 0,
        "measured_terminal_type": 2,
        "p_sigma": 1e6,
        "q_sigma": 1e6,
        "p_measured": 0,
        "q_measured": 0
      },
      {
        "id": 14,
        "measured_object": 5,
        "measured_terminal_type": 9,
        "p_sigma": 1e6,
        "q_sigma": 1e6,
        "p_measured": 0,
        "q_measured": 0
      }
    ],
    "sym_current_sensor": [
      {
        "id": 15,
        "measured_object": 9,
        "measured_terminal_type": 0,
        "angle_measurement_type": 0,
        "i_sigma": 1.0,
        "i_measured": 1.0,
        "i_angle_sigma": 1.0,
        "i_angle_measured": 1.0
      },
      {
        "id": 16,
        "measured_object": 12,
        "measured_terminal_type": 0,
        "angle_measurement_type": 0,
        "i_sigma": 1.0,
        "i_measured": 1.0,
        "i_angle_sigma": 1.0,
        "i_angle_measured": 1.0
      }
    ],
    "sym_voltage_sensor": [
      {
        "id": 17,
        "measured_object": 3,
        "u_sigma": 1e3,
        "u_measured": 10000,
        "u_angle_measured": 0
      }
    ],
    "sym_load": [
      {
        "id": 18,
        "node": 2,
        "status": 1,
        "type": 0
      },
      {
        "id": 19,
        "node": 4,
        "status": 1,
        "type": 0
      },
      {
        "id": 20,
        "node": 5,
        "status": 1,
        "type": 0
      },
      {
        "id": 21,
        "node": 6,
        "status": 1,
        "type": 0
      }
    ]
  }
}